12
Benzene
C 2.6267 0.0 0.0
C 1.3133500000000002 2.274788928120585 0.0
C -1.3133499999999994 2.2747889281205853 0.0
C -2.6267 3.216779747320353e-16 0.0
C -1.3133500000000011 -2.2747889281205844 0.0
C 1.3133499999999982 -2.274788928120586 0.0
H 4.6865000000000006 0.0 0.0
H 2.3432500000000007 4.058628054835772 0.0
H -2.3432499999999994 4.058628054835772 0.0
H -4.6865000000000006 5.739307224204072e-16 0.0
H -2.3432500000000025 -4.058628054835771 0.0
H 2.343249999999997 -4.058628054835774 0.0